data_image0
_chemical_formula_structural       Mo3Ir2Os
_chemical_formula_sum              "Mo3 Ir2 Os1"
_cell_length_a       4.77802674527661
_cell_length_b       2.751714631399272
_cell_length_c       6.8286508939098205
_cell_angle_alpha    90.0
_cell_angle_beta     103.13837108755273
_cell_angle_gamma    90.0

_space_group_name_H-M_alt    "P 1"
_space_group_IT_number       1

loop_
  _space_group_symop_operation_xyz
  'x, y, z'

loop_
  _atom_site_type_symbol
  _atom_site_label
  _atom_site_symmetry_multiplicity
  _atom_site_fract_x
  _atom_site_fract_y
  _atom_site_fract_z
  _atom_site_occupancy
  Mo  Mo1       1.0  0.7264885021  0.5  0.16914114579999995  1.0000
  Mo  Mo2       1.0  0.2735114979  0.5  0.8308588542000002  1.0000
  Mo  Mo3       1.0  0.5  0.5  0.5  1.0000
  Ir  Ir1       1.0  0.2287662107999999  0.0  0.1633418204999999  1.0000
  Ir  Ir2       1.0  0.7712337892000002  0.0  0.8366581795000002  1.0000
  Os  Os1       1.0  0.0  0.0  0.5  1.0000
