data_image0
_chemical_formula_structural       Mo2IrOs
_chemical_formula_sum              "Mo2 Ir1 Os1"
_cell_length_a       2.7593253360477585
_cell_length_b       4.423758814648512
_cell_length_c       4.781592282014011
_cell_angle_alpha    90.0
_cell_angle_beta     90.0
_cell_angle_gamma    90.0

_space_group_name_H-M_alt    "P 1"
_space_group_IT_number       1

loop_
  _space_group_symop_operation_xyz
  'x, y, z'

loop_
  _atom_site_type_symbol
  _atom_site_label
  _atom_site_symmetry_multiplicity
  _atom_site_fract_x
  _atom_site_fract_y
  _atom_site_fract_z
  _atom_site_occupancy
  Mo  Mo1       1.0  0.5  0.5  0.8982238823  1.0000
  Mo  Mo2       1.0  0.5  0.0  0.2422375231  1.0000
  Ir  Ir1       1.0  0.0  0.0  0.7446154563  1.0000
  Os  Os1       1.0  0.0  0.5  0.3943851383  1.0000
