data_image0
_chemical_formula_structural       NbTcMo4
_chemical_formula_sum              "Nb1 Tc1 Mo4"
_cell_length_a       3.136195344499832
_cell_length_b       3.136195344499832
_cell_length_c       9.448910371461837
_cell_angle_alpha    90.0
_cell_angle_beta     90.0
_cell_angle_gamma    90.0

_space_group_name_H-M_alt    "P 1"
_space_group_IT_number       1

loop_
  _space_group_symop_operation_xyz
  'x, y, z'

loop_
  _atom_site_type_symbol
  _atom_site_label
  _atom_site_symmetry_multiplicity
  _atom_site_fract_x
  _atom_site_fract_y
  _atom_site_fract_z
  _atom_site_occupancy
  Nb  Nb1       1.0  0.0  0.0  0.4244419899  1.0000
  Tc  Tc1       1.0  0.0  0.0  0.7579481174999999  1.0000
  Mo  Mo1       1.0  0.5  0.5  0.5960328141  1.0000
  Mo  Mo2       1.0  0.0  0.0  0.08761134309999996  1.0000
  Mo  Mo3       1.0  0.5  0.5  0.2522757501999999  1.0000
  Mo  Mo4       1.0  0.5  0.5  0.9237609852999997  1.0000
