data_image0
_chemical_formula_structural       Nb4Mo8Os4
_chemical_formula_sum              "Nb4 Mo8 Os4"
_cell_length_a       7.064074705976701
_cell_length_b       7.07294754629707
_cell_length_c       5.004749045719051
_cell_angle_alpha    90.0
_cell_angle_beta     90.0
_cell_angle_gamma    90.0

_space_group_name_H-M_alt    "P 1"
_space_group_IT_number       1

loop_
  _space_group_symop_operation_xyz
  'x, y, z'

loop_
  _atom_site_type_symbol
  _atom_site_label
  _atom_site_symmetry_multiplicity
  _atom_site_fract_x
  _atom_site_fract_y
  _atom_site_fract_z
  _atom_site_occupancy
  Nb  Nb1       1.0  0.26056090904999996  0.8742299713499999  0.25  1.0000
  Nb  Nb2       1.0  0.26056090904999996  0.1257700286500001  0.75  1.0000
  Nb  Nb3       1.0  0.76056090905  0.3742299713499999  0.25  1.0000
  Nb  Nb4       1.0  0.76056090905  0.6257700286500001  0.75  1.0000
  Mo  Mo1       1.0  0.6355775215500001  0.0  0.5  1.0000
  Mo  Mo2       1.0  0.5106058911  0.6246829892999998  0.25  1.0000
  Mo  Mo3       1.0  0.5106058911  0.37531701070000023  0.75  1.0000
  Mo  Mo4       1.0  0.6355775215500001  0.0  0.0  1.0000
  Mo  Mo5       1.0  0.13557752155000014  0.5  0.5  1.0000
  Mo  Mo6       1.0  0.010605891099999988  0.12468298929999966  0.25  1.0000
  Mo  Mo7       1.0  0.010605891099999988  0.8753170107000002  0.75  1.0000
  Mo  Mo8       1.0  0.13557752155000014  0.5  0.0  1.0000
  Os  Os1       1.0  0.38510635514999986  0.25067535485000014  0.25  1.0000
  Os  Os2       1.0  0.38510635514999986  0.7493246451499999  0.75  1.0000
  Os  Os3       1.0  0.8851063551499999  0.7506753548500001  0.25  1.0000
  Os  Os4       1.0  0.8851063551499999  0.24932464514999977  0.75  1.0000
