data_image0
_chemical_formula_structural       ReSiTcMo5
_chemical_formula_sum              "Re1 Si1 Tc1 Mo5"
_cell_length_a       4.8963060949149275
_cell_length_b       4.912133621466774
_cell_length_c       4.919216841100203
_cell_angle_alpha    90.0
_cell_angle_beta     90.0
_cell_angle_gamma    90.0

_space_group_name_H-M_alt    "P 1"
_space_group_IT_number       1

loop_
  _space_group_symop_operation_xyz
  'x, y, z'

loop_
  _atom_site_type_symbol
  _atom_site_label
  _atom_site_symmetry_multiplicity
  _atom_site_fract_x
  _atom_site_fract_y
  _atom_site_fract_z
  _atom_site_occupancy
  Re  Re1       1.0  0.0  0.0  0.6462941353  1.0000
  Si  Si1       1.0  0.5  0.49999999999999994  0.15175536049999994  1.0000
  Tc  Tc1       1.0  1.0069592386701037e-32  0.49999999999999994  0.38681314229999997  1.0000
  Mo  Mo1       1.0  0.7446645160999998  0.0  0.14976322930000008  1.0000
  Mo  Mo2       1.0  0.25533548390000016  0.0  0.14976322930000008  1.0000
  Mo  Mo3       1.0  0.5  0.2551094625999999  0.6504542561000001  1.0000
  Mo  Mo4       1.0  0.5  0.7448905374  0.6504542561000001  1.0000
  Mo  Mo5       1.0  1.0069592386701037e-32  0.49999999999999994  0.9006216577  1.0000
