data_image0
_chemical_formula_structural       Mo6OsRu
_chemical_formula_sum              "Mo6 Os1 Ru1"
_cell_length_a       4.938080525291002
_cell_length_b       4.938080525291002
_cell_length_c       4.938080525291002
_cell_angle_alpha    90.0
_cell_angle_beta     90.0
_cell_angle_gamma    90.0

_space_group_name_H-M_alt    "P 1"
_space_group_IT_number       1

loop_
  _space_group_symop_operation_xyz
  'x, y, z'

loop_
  _atom_site_type_symbol
  _atom_site_label
  _atom_site_symmetry_multiplicity
  _atom_site_fract_x
  _atom_site_fract_y
  _atom_site_fract_z
  _atom_site_occupancy
  Mo  Mo1       1.0  0.5  0.24996827760000007  0.0  1.0000
  Mo  Mo2       1.0  0.0  0.5  0.7500317223999999  1.0000
  Mo  Mo3       1.0  0.0  0.5  0.24996827760000007  1.0000
  Mo  Mo4       1.0  0.24996827760000007  0.0  0.5  1.0000
  Mo  Mo5       1.0  0.5  0.7500317223999999  0.0  1.0000
  Mo  Mo6       1.0  0.7500317223999999  0.0  0.5  1.0000
  Os  Os1       1.0  0.0  0.0  0.0  1.0000
  Ru  Ru1       1.0  0.5  0.5  0.5  1.0000
